data/TasNetworks - TasNetworks sourcebus_11000.trafo_75586990_75586990/LineCodes.dss
New Linecode.1P_Code11 units=km nphases=1 R1=1.29 R0=1e-05 X1=0.258 X0=1e-05  BaseFreq=50
New Linecode.1P_Code12 units=km nphases=1 R1=1.247 R0=1e-05 X1=0.2494 X0=1e-05  BaseFreq=50
New Linecode.1P_Code6 units=km nphases=1 R1=0.7839 R0=1e-05 X1=0.0915 X0=1e-05  BaseFreq=50
New Linecode.2P_Code10 units=km nphases=2 R1=1.978 R0=1e-05 X1=0.3956 X0=1e-05  BaseFreq=50
New Linecode.2P_Code7 units=km nphases=2 R1=1.247 R0=1e-05 X1=0.2494 X0=1e-05  BaseFreq=50
New Linecode.3P_Code0 units=km nphases=3 R1=0.164 R0=1e-05 X1=0.062 X0=1e-05  BaseFreq=50
New Linecode.3P_Code1 units=km nphases=3 R1=0.1 R0=1e-05 X1=0.061 X0=1e-05  BaseFreq=50
New Linecode.3P_Code2 units=km nphases=3 R1=0.15 R0=1e-05 X1=0.61 X0=1e-05 BaseFreq=50
New Linecode.3P_Code3 units=km nphases=3 R1=1.29 R0=1e-05 X1=0.258 X0=1e-05 BaseFreq=50
New Linecode.3P_Code4 units=km nphases=3 R1=1.247 R0=1e-05 X1=0.2494 X0=1e-05 BaseFreq=50
New Linecode.3P_Code8 units=km nphases=3 R1=1.978 R0=1e-05 X1=0.3956 X0=1e-05 BaseFreq=50
New Linecode.3P_OH_Code13 units=km nphases=3 R1=0.2614 R0=1e-05 X1=0.3489 X0=1e-05 BaseFreq=50
New Linecode.3P_OH_Code5 units=km nphases=3 R1=0.27 R0=1e-05 X1=0.3619 X0=1e-05 BaseFreq=50
New Linecode.3P_OH_Code9 units=km nphases=3 R1=0.4428 R0=1e-05 X1=0.3782 X0=1e-05 BaseFreq=50
